         120
11.919 11.919 11.919 
Si   1.50672    3.96947   -5.37817
O    1.47345    2.91118   -6.60315
O    0.57148    3.49165   -4.18883
O    2.96035    4.08275   -4.78658
H    1.02162    5.39228   -5.93412
Si   3.76072    0.70601    3.44694
O    2.96492    2.06152    3.60186
O    2.66907   -0.43225    2.97411
O    4.97354    0.79922    2.38838
H    4.43536    0.39553    4.82342
Si   1.64946   -1.00852    1.96044
O    2.48968   -1.50752    0.75373
O    2.66907   -0.43225    2.97411
O    0.63152    0.14405    1.50437
H    0.80757   -2.23839    2.60956
Si  -3.80971    1.84207    0.12712
H   -2.61500    1.22156    1.00099
O   -5.15905    0.98374    0.44970
O   -3.98140    3.32936    0.48676
O   -3.48342    1.83364   -1.42900
Si  -5.71906    3.04852   -3.39777
O   -5.92527    3.11744   -1.86617
O   -4.13999    3.07458   -3.64114
O   -6.35155    1.70014   -4.00166
O   -6.45946    4.30190   -4.08212
Si   0.88368    3.79731   -0.23922
O    0.42596    3.52119   -1.69847
O    0.31907    2.65888    0.69645
O    2.45765    3.78334   -0.10533
O    0.33205    5.22583    0.15046
Si   1.88865    0.11632   -3.00669
H    1.43052   -1.19143   -3.80519
O    3.14746    0.67603   -3.71897
O    0.71902    1.22907   -2.98777
O    2.25761   -0.24839   -1.51486
Si   4.69025    0.65370   -3.17248
O    4.64145    1.03937   -1.70817
O    5.56745    1.70014   -4.00166
H    5.40466   -0.80074   -3.26114
O    3.14746    0.67603   -3.71897
Si   5.07946    2.29298   -0.88795
O    5.99373    3.11744   -1.86617
O    3.79619    3.14578   -0.44440
O    4.64145    1.03937   -1.70817
H    5.88647    1.86936    0.46695
Si  -0.10055    1.53153    1.74596
O    0.33564    2.04038    3.21057
O    0.63152    0.14405    1.50437
H   -1.68841    1.28281    1.57246
O    0.31907    2.65888    0.69645
Si   5.83061   -5.55607    0.38946
O    7.16076   -6.21277   -0.25775
O    5.43726   -4.19736   -0.39633
O    4.60164   -6.64714    0.29653
H    6.12275   -5.16703    1.91538
Si   3.27849   -0.90279   -0.50684
O    2.48968   -1.50752    0.75373
O    4.07665   -2.14609   -1.21625
O    2.25761   -0.24839   -1.51486
O    4.29000    0.29085   -0.04996
Si   3.79032    4.00818    0.81930
O    2.45765    3.78334   -0.10533
H    3.30307    4.22504    2.34110
O    4.79893    2.75250    0.74489
O    4.60164    5.27186    0.29653
Si   1.83871   -5.39921    0.22488
O    2.16325   -5.38518    1.79403
O    2.79956   -4.38708   -0.50158
O    2.11269   -6.84736   -0.34840
H    0.27937   -4.97724   -0.04451
Si   5.20561    1.20657    0.88326
O    4.79893    2.75250    0.74489
O    4.29000    0.29085   -0.04996
O    6.75995    0.98374    0.44970
O    4.97354    0.79922    2.38838
Si  -3.04993    2.96524   -2.44038
O   -4.13999    3.07458   -3.64114
O   -3.01509    4.32990   -1.64800
O   -3.48342    1.83364   -1.42900
O   -1.56124    2.62283   -3.04338
Si  -0.75659   -5.95051    0.98789
H   -0.77288   -4.40037    0.64468
O    0.33205   -6.69317    0.15046
O   -0.33627   -6.12908    2.50871
O   -2.24925   -6.57945    0.64772
Si   0.03880    2.71618   -2.97961
O   -1.56124    2.62283   -3.04338
O    0.57148    3.49165   -4.18883
O    0.42596    3.52119   -1.69847
O    0.71902    1.22907   -2.98777
Si   1.62947    2.84064    3.83269
O    2.96492    2.06152    3.60186
O    1.74388    4.34951    3.20248
O    0.33564    2.04038    3.21057
O    1.47345    2.91118    5.31585
Si   4.10167   -3.71968   -1.22615
H    4.09321   -4.14819   -2.79045
O    4.07665   -2.14609   -1.21625
O    2.79956   -4.38708   -0.50158
O    5.43726   -4.19736   -0.39633
Si   1.23256    5.85776    2.95798
O    1.74388    4.34951    3.20248
H    1.35940    6.75779    4.32671
O    2.16325    6.53382    1.79403
O   -0.33627    5.78992    2.50871
Si  -3.50100    4.67625   -0.19282
O   -2.24925    5.33955    0.64772
O   -3.01509    4.32990   -1.64800
O   -3.98140    3.32936    0.48676
O   -4.75824    5.70623   -0.25775
Si   2.77549    3.99924   -1.26801
H    1.58866    3.07496   -1.87537
O    3.60443    4.70457   -2.40387
O    2.11269    5.07164   -0.34840
O    3.79619    3.14578   -0.44440
Si   4.02622    4.88199   -3.90588
O    3.60443    4.70457   -2.40387
O    2.96035    4.08275   -4.78658
H    4.08057    6.43872   -4.35096
O    5.45954    4.30190   -4.08212
